Version 4.1
SHEET 1 880 680
WIRE 336 -224 224 -224
WIRE 224 -160 224 -224
WIRE 336 -160 336 -224
WIRE 224 -32 224 -80
WIRE 224 -32 112 -32
WIRE 320 -32 224 -32
WIRE 320 128 320 48
WIRE 112 176 112 48
WIRE 256 176 112 176
WIRE 112 320 112 176
WIRE 320 320 320 224
WIRE 208 400 112 400
WIRE 320 400 208 400
WIRE 208 464 208 400
WIRE 208 576 208 544
FLAG 208 576 0
FLAG 336 -160 0
FLAG 320 128 Ve
FLAG 256 176 Vb
FLAG 320 224 Vc
SYMBOL res 304 -48 R0
SYMATTR InstName RE
SYMATTR Value 14k
SYMBOL res 304 304 R0
SYMATTR InstName RC
SYMATTR Value 13k
SYMBOL res 96 -48 R0
SYMATTR InstName R1
SYMATTR Value 8k
SYMBOL res 96 304 R0
SYMATTR InstName R2
SYMATTR Value 6.2k
SYMBOL pnp 256 224 M180
SYMATTR InstName Q1
SYMATTR Value 2N3906
SYMBOL voltage 208 448 R0
SYMATTR InstName V-
SYMATTR Value -15
SYMBOL voltage 224 -64 R180
WINDOW 0 24 96 Left 2
WINDOW 3 24 16 Left 2
SYMATTR InstName V+
SYMATTR Value 15
TEXT -40 -296 Left 2 !.op
