Version 4.1
SHEET 1 880 680
WIRE 368 -240 240 -240
WIRE 240 -208 240 -240
WIRE 368 -176 368 -240
WIRE 240 -32 240 -128
WIRE 240 144 240 48
WIRE 176 192 128 192
WIRE 128 240 128 192
WIRE 240 240 128 240
WIRE 240 320 240 240
WIRE 240 464 240 400
WIRE 240 608 240 544
FLAG 368 -176 0
FLAG 240 608 0
FLAG 240 144 Ve
FLAG 128 192 Vb
FLAG 240 240 Vc
SYMBOL pnp 176 240 M180
SYMATTR InstName Q1
SYMATTR Value 2N3906
SYMBOL res 224 -48 R0
SYMATTR InstName Ve
SYMATTR Value 15k
SYMBOL res 224 304 R0
SYMATTR InstName Rc
SYMATTR Value 14.01k
SYMBOL voltage 240 -112 R180
WINDOW 0 24 96 Left 2
WINDOW 3 24 16 Left 2
SYMATTR InstName V+
SYMATTR Value 15
SYMBOL voltage 240 448 R0
SYMATTR InstName V-
SYMATTR Value -15
TEXT 96 632 Left 2 !.op
