Version 4.1
SHEET 1 1496 680
WIRE 192 80 112 80
WIRE 304 80 256 80
WIRE 368 80 304 80
WIRE 112 112 112 80
WIRE 304 112 304 80
WIRE 112 224 112 192
WIRE 304 224 304 192
WIRE 304 224 112 224
WIRE 368 224 304 224
WIRE 304 240 304 224
FLAG 304 240 0
SYMBOL voltage 112 96 R0
WINDOW 123 0 0 Left 0
WINDOW 39 0 0 Left 0
SYMATTR InstName V1
SYMATTR Value SINE(0 5 1000)
SYMBOL diode 192 96 R270
WINDOW 0 32 32 VTop 2
WINDOW 3 0 32 VBottom 2
SYMATTR InstName D1
SYMATTR Value 1N4002
SYMBOL res 288 96 R0
SYMATTR InstName R1
SYMATTR Value 10k
TEXT -200 -104 Left 2 !.model 1N4002 D(Is=14.11n N=1.921 Rs=84.1m Ikf=94.81m Xti=3 Eg=1.11 Cjo=19.46p M=0.3642 Vj=0.75 Fc=0.5 Bv=100 Ibv=10u Tt=4.316u)
TEXT -120 336 Left 2 !.tran 0.005
